Version 4
SHEET 1 3012 892
WIRE 2048 -64 2048 -144
WIRE 2048 -64 1952 -64
WIRE 1120 -48 1008 -48
WIRE 1248 -48 1120 -48
WIRE 656 -32 608 -32
WIRE 672 -32 656 -32
WIRE 1952 -32 1952 -64
WIRE 2048 -32 2048 -64
WIRE 256 -16 240 -16
WIRE 352 -16 320 -16
WIRE 1008 -16 1008 -48
WIRE 1008 -16 864 -16
WIRE 1248 -16 1248 -48
WIRE 1296 -16 1248 -16
WIRE 1488 -16 1488 -96
WIRE 1488 -16 1440 -16
WIRE 1584 -16 1552 -16
WIRE 1856 -16 1584 -16
WIRE 656 0 656 -32
WIRE 672 0 656 0
WIRE 1584 0 1584 -16
WIRE -160 16 -240 16
WIRE -16 16 -80 16
WIRE 144 16 64 16
WIRE 240 16 240 -16
WIRE 240 16 144 16
WIRE 1008 16 864 16
WIRE 1296 16 1248 16
WIRE 1552 16 1552 -16
WIRE 1552 16 1440 16
WIRE 352 32 352 -16
WIRE 400 32 352 32
WIRE 528 32 480 32
WIRE 672 32 528 32
WIRE 1008 32 1008 16
WIRE 1120 32 1008 32
WIRE 1248 32 1248 16
WIRE 1248 32 1120 32
WIRE 1872 32 1824 32
WIRE -240 48 -240 16
WIRE 960 48 864 48
WIRE 1296 48 1264 48
WIRE 1552 48 1440 48
WIRE 2352 48 2128 48
WIRE 2480 48 2432 48
WIRE 2688 48 2544 48
WIRE 240 64 240 16
WIRE 256 64 240 64
WIRE 352 64 352 32
WIRE 352 64 320 64
WIRE 672 64 624 64
WIRE 1856 64 1856 -16
WIRE 1872 64 1856 64
WIRE 896 80 864 80
WIRE 528 96 528 32
WIRE 1552 96 1552 48
WIRE 1584 96 1584 80
WIRE 1584 96 1552 96
WIRE 1824 96 1824 32
WIRE 1824 96 1584 96
WIRE 144 112 144 16
WIRE 960 112 960 48
WIRE 1024 112 960 112
WIRE 1184 112 1104 112
WIRE 1264 112 1264 48
WIRE 1872 112 1776 112
WIRE 896 128 896 80
WIRE 1872 160 1856 160
WIRE 528 176 528 160
WIRE 144 208 144 192
WIRE 1776 224 1776 112
WIRE 2048 240 2048 192
WIRE 576 336 576 272
WIRE 1856 336 1856 160
WIRE 2352 336 1856 336
WIRE 1776 352 1776 304
WIRE 576 464 576 416
FLAG 896 128 0
FLAG 1184 112 VAA
FLAG 576 464 0
FLAG 576 272 VAA
FLAG -240 48 0
FLAG 608 -32 VAA
FLAG 528 176 0
FLAG 144 208 0
FLAG 624 64 0
FLAG 1264 112 0
FLAG 1488 -96 VAA
FLAG 2048 -144 VAA
FLAG 2048 240 0
FLAG 1776 352 VAA
SYMBOL res 496 16 R90
WINDOW 0 0 56 VBottom 2
WINDOW 3 32 56 VTop 2
SYMATTR InstName R1
SYMATTR Value 309
SYMATTR SpiceLine tol=1 pwr=.125
SYMBOL res 1008 128 R270
WINDOW 0 32 56 VTop 2
WINDOW 3 0 56 VBottom 2
SYMATTR InstName R0
SYMATTR Value 0
SYMBOL cap 320 -32 R90
WINDOW 0 0 32 VBottom 2
WINDOW 3 32 32 VTop 2
SYMATTR InstName C5
SYMATTR Value 100n
SYMBOL cap 320 48 R90
WINDOW 0 0 32 VBottom 2
WINDOW 3 32 32 VTop 2
SYMATTR InstName C7
SYMATTR Value 100p
SYMBOL MAX40660 768 16 R0
SYMATTR InstName U1
SYMBOL voltage 576 320 R0
SYMATTR InstName V2
SYMATTR Value 3.3
SYMBOL cap 512 96 R0
SYMATTR InstName C1
SYMATTR Value 10p
SYMBOL res 128 96 R0
SYMATTR InstName R2
SYMATTR Value 1000
SYMBOL current 64 16 R90
WINDOW 0 32 40 VTop 2
WINDOW 3 4 40 VTop 2
WINDOW 123 0 0 Left 0
WINDOW 39 0 0 Left 0
SYMATTR InstName 15n
SYMATTR Value PULSE(0 15u 0 10n 10n 20n 100n)
SYMBOL voltage -176 16 R270
WINDOW 0 32 56 VTop 2
WINDOW 3 -32 56 VBottom 2
SYMATTR InstName V1
SYMATTR Value 10
SYMBOL ind 2448 32 R90
WINDOW 0 -2 58 VBottom 2
WINDOW 3 32 56 VTop 2
SYMATTR InstName L2
SYMATTR Value 230n
SYMBOL cap 2544 32 R90
WINDOW 0 7 31 VBottom 2
WINDOW 3 32 32 VTop 2
SYMATTR InstName C3
SYMATTR Value 13p
SYMBOL res 1104 -64 R0
SYMATTR InstName R3
SYMATTR Value 100
SYMBOL MAX40026 1360 16 R0
SYMATTR InstName U2
SYMBOL res 1568 -16 R0
SYMATTR InstName R4
SYMATTR Value 100
SYMBOL Comparators\\LTC6752-2 2000 80 R0
WINDOW 3 46 36 Center 2
SYMATTR InstName U3
SYMBOL res 1760 208 R0
SYMATTR InstName R5
SYMATTR Value 10k
TEXT -40 256 Left 2 !.tran 0 2us 1us
TEXT -392 384 Left 2 ;Gain Connected to Ground is 25kOhms, Connected to Vcc for Gain of 50 K=kOhm
TEXT -1040 -80 Left 2 ;Rise:              2  ns            2ns        1ns\nFall:               2  ns            2ns         1ns\nPeriod:          10 ns            10ns        20ns\nFlip Current:   33 uA            33uA       33uA
TEXT -1040 32 Left 2 ;From testing, changing rise/fall times slightly have no effect, \nnor does changing length of period. Currrent setup needs \nphotodiode to produce 33uA
TEXT -1040 208 Left 2 ;To lower target current needed to flip output, either\nlower R1 or increase R2
TEXT -1040 120 Left 2 ;Connecting LP to VAA rather than ground does produce a slight\nreduction in required threshold for detection, from 33 uA to\n32 uA, but this is due to percision being doubled
TEXT 464 -176 Left 2 ;MAX40660, Transimpendance Amplifier. Detects \nchanges in currents and outputs a differential singal
TEXT 1072 200 Left 2 ;MAX40026, High speed comparator, takes in the signal\nfrom the MAX40660 and outputs and LVDS signal
TEXT 1776 -296 Left 2 ;LTC6752-2, Differnetial Line Receiver. Transforms the LVDS\nsignal from the MAX40026 into a single output, corresponding\nto changes in the high/low of the LVDS singal
